media/examples/OpenDSS/IEEE13/IEEE13Nodeckt_Power_elem_kVA.txt

CIRCUIT ELEMENT POWER FLOW

(Power Flow into element from indicated Bus)

Power Delivery Elements

  Bus     Phase     kW     +j   kvar         kVA         PF

ELEMENT = "Vsource.SOURCE"
SOURCEBUS     1     -1024.1 +j   -612.8     1193.5       0.8581
SOURCEBUS     2     -1242.2 +j   -419.1     1311.0       0.9475
SOURCEBUS     3     -1300.9 +j   -704.7     1479.5       0.8793
   TERMINAL TOTAL . -3567.2 +j  -1736.6     3967.5       0.8991
SOURCEBUS     0         0.0 +j      0.0        0.0       1.0000
SOURCEBUS     0         0.0 +j      0.0        0.0       1.0000
SOURCEBUS     0         0.0 +j      0.0        0.0       1.0000
   TERMINAL TOTAL .     0.0 +j      0.0        0.0       1.0000

ELEMENT = "Transformer.SUB"
SOURCEBUS     1      1024.1 +j    612.8     1193.5       0.8581
SOURCEBUS     2      1242.2 +j    419.1     1311.0       0.9475
SOURCEBUS     3      1300.9 +j    704.7     1479.5       0.8793
SOURCEBUS     0         0.0 +j      0.0        0.0       1.0000
   TERMINAL TOTAL .  3567.2 +j   1736.6     3967.5       0.8991
650           1     -1252.0 +j   -685.0     1427.1       0.8773
650           2      -972.9 +j   -379.2     1044.1       0.9317
650           3     -1342.3 +j   -672.2     1501.2       0.8942
650           0         0.0 +j      0.0        0.0       1.0000
   TERMINAL TOTAL . -3567.2 +j  -1736.3     3967.3       0.8991

ELEMENT = "Transformer.REG1"
650           1      1252.0 +j    685.0     1427.1       0.8773
650           0         0.0 +j      0.0        0.0       1.0000
   TERMINAL TOTAL .  1252.0 +j    685.0     1427.1       0.8773
RG60          1     -1251.9 +j   -684.9     1427.0       0.8773
RG60          0         0.0 +j      0.0        0.0       1.0000
   TERMINAL TOTAL . -1251.9 +j   -684.9     1427.0       0.8773

ELEMENT = "Transformer.REG2"
650           2       972.9 +j    379.2     1044.1       0.9317
650           0         0.0 +j      0.0        0.0       1.0000
   TERMINAL TOTAL .   972.9 +j    379.2     1044.1       0.9317
RG60          2      -972.8 +j   -379.1     1044.0       0.9317
RG60          0         0.0 +j      0.0        0.0       1.0000
   TERMINAL TOTAL .  -972.8 +j   -379.1     1044.0       0.9317

ELEMENT = "Transformer.REG3"
650           3      1342.3 +j    672.2     1501.2       0.8942
650           0         0.0 +j      0.0        0.0       1.0000
   TERMINAL TOTAL .  1342.3 +j    672.2     1501.2       0.8942
RG60          3     -1342.2 +j   -672.0     1501.0       0.8942
RG60          0         0.0 +j      0.0        0.0       1.0000
   TERMINAL TOTAL . -1342.2 +j   -672.0     1501.0       0.8942

ELEMENT = "Transformer.XFM1"
633           1       162.6 +j    114.6      198.9       0.8172
633           2       121.5 +j     92.7      152.8       0.7951
633           3       121.6 +j     92.8      152.9       0.7948
633           0         0.0 +j      0.0        0.0       1.0000
   TERMINAL TOTAL .   405.6 +j    300.1      504.5       0.8039
634           1      -160.0 +j   -110.0      194.2       0.8240
634           2      -120.0 +j    -90.0      150.0       0.8000
634           3      -120.0 +j    -90.0      150.0       0.8000
634           0         0.0 +j      0.0        0.0       1.0000
   TERMINAL TOTAL .  -400.0 +j   -290.0      494.1       0.8096

ELEMENT = "Capacitor.CAP1"
675           1         0.0 +j   -190.6      190.6       1.0000
675           2        -0.0 +j   -217.4      217.4       0.0000
675           3        -0.0 +j   -185.5      185.5       0.0000
   TERMINAL TOTAL .    -0.0 +j   -593.5      593.5       0.0000
675           0         0.0 +j      0.0        0.0       1.0000
675           0         0.0 +j      0.0        0.0       1.0000
675           0         0.0 +j      0.0        0.0       1.0000
   TERMINAL TOTAL .     0.0 +j      0.0        0.0       1.0000

ELEMENT = "Capacitor.CAP2"
611           3         0.0 +j    -92.5       92.5       1.0000
   TERMINAL TOTAL .     0.0 +j    -92.5       92.5       1.0000
611           0         0.0 +j      0.0        0.0       1.0000
   TERMINAL TOTAL .     0.0 +j      0.0        0.0       1.0000

ELEMENT = "Line.650632"
RG60          1      1251.9 +j    684.9     1427.0       0.8773
RG60          2       972.8 +j    379.1     1044.0       0.9317
RG60          3      1342.2 +j    672.0     1501.0       0.8942
   TERMINAL TOTAL .  3566.9 +j   1736.0     3966.9       0.8992
632           1     -1230.2 +j   -604.4     1370.6       0.8975
632           2      -975.9 +j   -346.4     1035.6       0.9424
632           3     -1300.0 +j   -589.1     1427.3       0.9108
   TERMINAL TOTAL . -3506.1 +j  -1540.0     3829.4       0.9156

ELEMENT = "Line.632670"
632           1      1067.3 +j    489.2     1174.1       0.9090
632           2       524.1 +j    125.5      538.9       0.9725
632           3      1100.5 +j    361.6     1158.4       0.9500
   TERMINAL TOTAL .  2691.9 +j    976.4     2863.5       0.9401
670           1     -1064.1 +j   -467.1     1162.1       0.9157
670           2      -526.0 +j   -123.9      540.4       0.9733
670           3     -1088.8 +j   -343.8     1141.8       0.9536
   TERMINAL TOTAL . -2678.9 +j   -934.9     2837.3       0.9442

ELEMENT = "Line.670671"
670           1      1047.1 +j    457.1     1142.5       0.9165
670           2       460.0 +j     85.9      468.0       0.9830
670           3       971.8 +j    275.8     1010.1       0.9620
   TERMINAL TOTAL .  2478.9 +j    818.9     2610.6       0.9495
671           1     -1039.4 +j   -412.9     1118.4       0.9294
671           2      -464.4 +j    -83.3      471.8       0.9843
671           3      -952.4 +j   -250.4      984.8       0.9671
   TERMINAL TOTAL . -2456.1 +j   -746.5     2567.1       0.9568

ELEMENT = "Line.671680"
671           1        -0.0 +j     -0.0        0.0       0.0185
671           2         0.0 +j     -0.0        0.0      -0.0093
671           3         0.0 +j     -0.0        0.0      -0.0084
   TERMINAL TOTAL .     0.0 +j     -0.0        0.0      -0.0000
680           1         0.0 +j      0.0        0.0       0.2244
680           2        -0.0 +j     -0.0        0.0       0.9458
680           3         0.0 +j      0.0        0.0       0.8989
   TERMINAL TOTAL .     0.0 +j      0.0        0.0       0.2453

ELEMENT = "Line.632633"
632           1       162.9 +j    115.2      199.5       0.8166
632           2       121.6 +j     92.9      153.0       0.7946
632           3       121.9 +j     93.1      153.3       0.7948
   TERMINAL TOTAL .   406.4 +j    301.2      505.8       0.8034
633           1      -162.6 +j   -114.6      198.9       0.8172
633           2      -121.5 +j    -92.7      152.8       0.7951
633           3      -121.6 +j    -92.8      152.9       0.7948
   TERMINAL TOTAL .  -405.6 +j   -300.1      504.5       0.8039

ELEMENT = "Line.632645"
632           3        77.6 +j    134.5      155.3       0.5000
632           2       330.2 +j    128.0      354.2       0.9324
   TERMINAL TOTAL .   407.9 +j    262.4      485.0       0.8409
645           3       -77.4 +j   -134.2      155.0       0.4996
645           2      -327.7 +j   -125.8      351.0       0.9336
   TERMINAL TOTAL .  -405.1 +j   -260.0      481.4       0.8415

ELEMENT = "Line.645646"
645           3        77.4 +j    134.2      155.0       0.4996
645           2       157.7 +j      0.8      157.7       1.0000
   TERMINAL TOTAL .   235.1 +j    135.0      271.1       0.8671
646           3       -77.2 +j   -134.0      154.7       0.4990
646           2      -157.4 +j     -0.6      157.4       1.0000
   TERMINAL TOTAL .  -234.6 +j   -134.6      270.5       0.8673

ELEMENT = "Line.692675"
692           1       488.3 +j      1.4      488.3       1.0000
692           2        68.3 +j   -156.9      171.2      -0.3992
692           3       290.6 +j     26.5      291.8       0.9959
   TERMINAL TOTAL .   847.2 +j   -129.0      857.0      -0.9886
675           1      -485.0 +j      0.6      485.0      -1.0000
675           2       -68.0 +j    157.4      171.5      -0.3965
675           3      -290.0 +j    -26.6      291.3       0.9958
   TERMINAL TOTAL .  -843.1 +j    131.5      853.2      -0.9881

ELEMENT = "Line.671684"
671           1       123.0 +j     82.4      148.0       0.8308
671           3       164.2 +j    -14.9      164.9      -0.9959
   TERMINAL TOTAL .   287.2 +j     67.5      295.0       0.9735
684           1      -122.7 +j    -82.2      147.7       0.8310
684           3      -163.9 +j     15.1      164.6      -0.9958
   TERMINAL TOTAL .  -286.6 +j    -67.0      294.3       0.9737

ELEMENT = "Line.684611"
684           3       163.9 +j    -15.1      164.6      -0.9958
   TERMINAL TOTAL .   163.9 +j    -15.1      164.6      -0.9958
611           3      -163.5 +j     15.5      164.2      -0.9955
   TERMINAL TOTAL .  -163.5 +j     15.5      164.2      -0.9955

ELEMENT = "Line.684652"
684           1       122.7 +j     82.2      147.7       0.8310
   TERMINAL TOTAL .   122.7 +j     82.2      147.7       0.8310
652           1      -121.9 +j    -81.9      146.9       0.8300
   TERMINAL TOTAL .  -121.9 +j    -81.9      146.9       0.8300

ELEMENT = "Line.671692"
671           1       531.0 +j    123.2      545.1       0.9741
671           2        68.3 +j   -156.9      171.2      -0.3992
671           3       414.5 +j     52.8      417.9       0.9920
   TERMINAL TOTAL .  1013.9 +j     19.0     1014.1       0.9998
692           1      -531.0 +j   -123.2      545.1       0.9741
692           2       -68.3 +j    156.9      171.2      -0.3992
692           3      -414.5 +j    -52.8      417.9       0.9920
   TERMINAL TOTAL . -1013.9 +j    -19.0     1014.1       0.9998

= = = = = = = = = = = = = = = = = = =  = = = = = = = = = = =  = =

Power Conversion Elements

  Bus     Phase     kW   +j  kvar         kVA         PF

ELEMENT = "Load.671"
671           1     385.4 +j  207.4      437.6       0.8806
671           2     396.0 +j  240.2      463.2       0.8550
671           3     373.6 +j  212.5      429.8       0.8693
  TERMINAL TOTAL  .  1155.0 +j    660.0     1330.3       0.8682

ELEMENT = "Load.634A"
634           1     160.0 +j  110.0      194.2       0.8240
634           0       0.0 +j    0.0        0.0       1.0000
  TERMINAL TOTAL  .   160.0 +j    110.0      194.2       0.8240

ELEMENT = "Load.634B"
634           2     120.0 +j   90.0      150.0       0.8000
634           0       0.0 +j    0.0        0.0       1.0000
  TERMINAL TOTAL  .   120.0 +j     90.0      150.0       0.8000

ELEMENT = "Load.634C"
634           3     120.0 +j   90.0      150.0       0.8000
634           0       0.0 +j    0.0        0.0       1.0000
  TERMINAL TOTAL  .   120.0 +j     90.0      150.0       0.8000

ELEMENT = "Load.645"
645           2     170.0 +j  125.0      211.0       0.8057
645           0       0.0 +j    0.0        0.0       1.0000
  TERMINAL TOTAL  .   170.0 +j    125.0      211.0       0.8057

ELEMENT = "Load.646"
646           2     157.4 +j    0.6      157.4       1.0000
646           3      77.2 +j  134.0      154.7       0.4989
  TERMINAL TOTAL  .   234.6 +j    134.6      270.5       0.8673

ELEMENT = "Load.692"
692           3     123.9 +j   26.3      126.7       0.9782
692           1      42.8 +j  121.7      129.0       0.3315
  TERMINAL TOTAL  .   166.7 +j    148.1      222.9       0.7476

ELEMENT = "Load.675A"
675           1     485.0 +j  190.0      520.9       0.9311
675           0       0.0 +j    0.0        0.0       1.0000
  TERMINAL TOTAL  .   485.0 +j    190.0      520.9       0.9311

ELEMENT = "Load.675B"
675           2      68.0 +j   60.0       90.7       0.7498
675           0       0.0 +j    0.0        0.0       1.0000
  TERMINAL TOTAL  .    68.0 +j     60.0       90.7       0.7498

ELEMENT = "Load.675C"
675           3     290.0 +j  212.0      359.3       0.8073
675           0       0.0 +j    0.0        0.0       1.0000
  TERMINAL TOTAL  .   290.0 +j    212.0      359.3       0.8073

ELEMENT = "Load.611"
611           3     163.5 +j   76.9      180.7       0.9048
611           0       0.0 +j    0.0        0.0       1.0000
  TERMINAL TOTAL  .   163.5 +j     76.9      180.7       0.9048

ELEMENT = "Load.652"
652           1     121.9 +j   81.9      146.9       0.8300
652           0       0.0 +j    0.0        0.0       1.0000
  TERMINAL TOTAL  .   121.9 +j     81.9      146.9       0.8300

ELEMENT = "Load.670A"
670           1      17.0 +j   10.0       19.7       0.8619
670           0       0.0 +j    0.0        0.0       1.0000
  TERMINAL TOTAL  .    17.0 +j     10.0       19.7       0.8619

ELEMENT = "Load.670B"
670           2      66.0 +j   38.0       76.2       0.8666
670           0       0.0 +j    0.0        0.0       1.0000
  TERMINAL TOTAL  .    66.0 +j     38.0       76.2       0.8666

ELEMENT = "Load.670C"
670           3     117.0 +j   68.0      135.3       0.8646
670           0       0.0 +j    0.0        0.0       1.0000
  TERMINAL TOTAL  .   117.0 +j     68.0      135.3       0.8646


Total Circuit Losses =  112.4 +j  327.9
